/*--------------------------------*- C++ -*----------------------------------*\
| =========                 |                                                 |
| \\      /  F ield         | OpenFOAM: The Open Source CFD Toolbox           |
|  \\    /   O peration     | Version:  v1912                                 |
|   \\  /    A nd           | Website:  www.openfoam.com                      |
|    \\/     M anipulation  |                                                 |
\*---------------------------------------------------------------------------*/
FoamFile
{
    version     2.0;
    format      ascii;
    class       dictionary;
    location    "system";
    object      controlDict;
}
// * * * * * * * * * * * * * * * * * * * * * * * * * * * * * * * * * * * * * //

application     icoFoam;

startFrom       startTime;

startTime       0;

stopAt          endTime;

endTime         100;

deltaT          0.05;

writeControl    timeStep;

writeInterval   50;

purgeWrite      0;

writeFormat     ascii;

writePrecision  6;

writeCompression off;

timeFormat      general;

timePrecision   6;

runTimeModifiable true;

functions
{

	vorticity
	{ 	
		type vorticity;
		libs ("libfieldFunctionObjects.so");
		writeControl writeTime;
	}
	
	forces
	{
		type forceCoeffs;
		//functionObjectLibs ("libforces.so");
		libs ("libforces.so");
		log	yes;

		writeControl timeStep;
        	writeInterval 40;
		
		patches
		( 
			cylinder
		);
		
		// Optional Entries
		
		// Field Entries
		rho         rhoInf;
		rhoInf      1;
		p   p  ;
		U   U  ;
		
		//Reference pressure [Pa]
		
		//pRef  0;
		
		// Centre of Rotation for moment calculations
		CofR (0 0 0);
		
		// Lift Direction
	        liftDir (0 1 0);
	  
	       //Drag Direction
	       dragDir (1 0 0);
	  
	  // Pitch Axis
	  pitchAxis (0 0 1);
	  
	  // Freestream velocity magnitude [m/s]
	  magUInf 1;
	  
	  //Reference length [m]
	  lRef 1;
	  
	  // Reference Area [m2]
	  Aref 1;
	  
	  }
}
		
		

// ************************************************************************* //
